
FoamFile
{
    version     2.0;
    format      ascii;
    class       volScalarField;
    location    "0/solid_heatsink";
    object      T;
}

dimensions      [0 0 0 1 0 0 0];
internalField   uniform 300;

boundaryField
{
    heatsink_bottom
    {
        type            fixedValue;
        value           uniform 300;
    }
    solid_heatsink_to_solid_chip
    {
        type            compressible::turbulentTemperatureCoupledBaffleMixed;
        Tnbr            T;
        kappaMethod     solidThermo;
        value           uniform 300;
        sampleMode      nearestPatchFace;
    }
    defaultFaces
    {
        type            zeroGradient;
    }
}
