/*--------------------------------*- C++ -*----------------------------------*\
| =========                 |                                                 |
| \\      /  F ield         | OpenFOAM: The Open Source CFD Toolbox           |
|  \\    /   O peration     | Version:  2312                                  |
|   \\  /    A nd           | Website:  www.openfoam.com                      |
|    \\/     M anipulation  |                                                 |
\*---------------------------------------------------------------------------*/
FoamFile
{
    version     2.0;
    format      ascii;
    arch        "LSB;label=32;scalar=64";
    class       polyBoundaryMesh;
    location    "constant/polyMesh";
    object      boundary;
}
// * * * * * * * * * * * * * * * * * * * * * * * * * * * * * * * * * * * * * //

5
(
    inlet
    {
        type            patch;
        nFaces          980;
        startFace       190840;
    }
    outlet
    {
        type            patch;
        nFaces          980;
        startFace       191820;
    }
    topWall
    {
        type            wall;
        inGroups        1(wall);
        nFaces          400;
        startFace       192800;
    }
    bottomWall
    {
        type            wall;
        inGroups        1(wall);
        nFaces          1600;
        startFace       193200;
    }
    frontAndBack
    {
        type            wall;
        inGroups        1(wall);
        nFaces          1960;
        startFace       194800;
    }
)

// ************************************************************************* //
