
FoamFile
{
    version     2.0;
    format      ascii;
    class       volScalarField;
    location    "0/solid_heatsink"; // Will be overwritten by file write
    object      p;
}

dimensions      [1 -1 -2 0 0 0 0];
internalField   uniform 100000;

boundaryField
{
    ".*"
    {
        type            calculated;
        value           uniform 100000;
    }
}
