/*--------------------------------*- C++ -*----------------------------------*\
| =========                 |                                                 |
| \\      /  F ield         | OpenFOAM: The Open Source CFD Toolbox           |
|  \\    /   O peration     | Version:  2312                                  |
|   \\  /    A nd           | Website:  www.openfoam.com                      |
|    \\/     M anipulation  |                                                 |
\*---------------------------------------------------------------------------*/
FoamFile
{
    version     2.0;
    format      ascii;
    arch        "LSB;label=32;scalar=64";
    class       polyBoundaryMesh;
    location    "constant/solid_heatsink/polyMesh";
    object      boundary;
}
// * * * * * * * * * * * * * * * * * * * * * * * * * * * * * * * * * * * * * //

5
(
    inlet
    {
        type            patch;
        nFaces          580;
        startFace       100440;
    }
    outlet
    {
        type            patch;
        nFaces          580;
        startFace       101020;
    }
    topWall
    {
        type            wall;
        inGroups        1(wall);
        nFaces          400;
        startFace       101600;
    }
    frontAndBack
    {
        type            wall;
        inGroups        1(wall);
        nFaces          1160;
        startFace       102000;
    }
    solid_heatsink_to_domain0
    {
        type            mappedWall;
        inGroups        1(wall);
        nFaces          6400;
        startFace       103160;
        sampleMode      nearestPatchFace;
        sampleRegion    domain0;
        samplePatch     domain0_to_solid_heatsink;
    }
)

// ************************************************************************* //
