/*--------------------------------*- C++ -*----------------------------------*\
| =========                 |                                                 |
| \\      /  F ield         | OpenFOAM: The Open Source CFD Toolbox           |
|  \\    /   O peration     | Version:  2312                                  |
|   \\  /    A nd           | Website:  www.openfoam.com                      |
|    \\/     M anipulation  |                                                 |
\*---------------------------------------------------------------------------*/
FoamFile
{
    version     2.0;
    format      ascii;
    arch        "LSB;label=32;scalar=64";
    class       polyBoundaryMesh;
    location    "constant/solid_heatsink/polyMesh";
    object      boundary;
}
// * * * * * * * * * * * * * * * * * * * * * * * * * * * * * * * * * * * * * //

3
(
    heatsink_bottom
    {
        type            patch;
        physicalType    patch;
        nFaces          244;
        startFace       1485;
    }
    defaultFaces
    {
        type            patch;
        nFaces          408;
        startFace       1729;
    }
    solid_heatsink_to_solid_chip
    {
        type            mappedWall;
        inGroups        1(wall);
        nFaces          14;
        startFace       2137;
        sampleMode      nearestPatchFace;
        sampleRegion    solid_chip;
        samplePatch     solid_chip_to_solid_heatsink;
    }
)

// ************************************************************************* //
